35
AABHTZ
Cl     -3.672011    0.794130    0.703424
Cl     -6.165445   -3.843340    2.167950
C      -4.922134   -0.093188    1.529499
C      -5.842684    0.639019    2.270049
C      -6.814849   -0.015607    2.972147
C      -6.873575   -1.397917    2.948279
C      -5.962153   -2.115550    2.184524
C      -4.945151   -1.491127    1.445963
C      -3.946263   -2.167189    0.587402
N      -3.520581   -3.326939    0.895688
N      -2.547213   -3.901826    0.065635
C      -2.127396   -3.359001   -1.161544
N      -2.870984   -3.230996   -2.218999
N      -2.064454   -2.653189   -3.210820
C      -0.899225   -2.463904   -2.691705
N      -0.872170   -2.891134   -1.394913
N       0.161958   -2.740134   -0.491269
C       0.007793   -1.798001    0.493258
C       1.126483   -1.740381    1.468504
O      -0.966549   -1.070019    0.525744
C      -2.015356   -5.115695    0.476021
C      -2.591052   -5.741894    1.689277
O      -1.113293   -5.597075   -0.196243
H      -5.772884    1.633167    2.300546
H      -7.457111    0.476851    3.520432
H      -7.564376   -1.921010    3.513803
H      -3.590775   -1.719331   -0.212154
H      -0.145202   -2.027951   -3.109384
H       0.761794   -3.351387   -0.377900
H       1.478868   -0.828033    1.438670
H       1.863513   -2.423085    1.253035
H       0.844696   -1.799233    2.207729
H      -2.243774   -6.690614    1.823199
H      -2.351408   -5.399382    2.479551
H      -3.537833   -5.877199    1.611045
